tests/data/power_flow/pandapower/components/pp-sym-transformer/sym_output.json
{
  "node": [
    {
      "id": 1,
      "u_pu": 0.99999967027818,
      "u": 10499.996537920892,
      "u_angle": -1.2735535808454e-06
    },
    {
      "id": 2,
      "u_pu": 0.9996849485928355,
      "u": 399.8739794371342,
      "u_angle": 0.5224730061346102
    }
  ],
  "source": [
    {
      "id": 7,
      "p": 13000.412146487794,
      "q": 2013.6128220535854,
      "i": 0.7233613205085173,
      "s": 13155.430535550175
    }
  ],
  "sym_load": [
    {
      "id": 6,
      "p": 10000.0,
      "q": 2000.0
    }
  ],
  "transformer": [
    {
      "id": 3,
      "loading": 0.012168175868662132,
      "p_from": 12000.415307093359,
      "q_from": 2013.5879489038525,
      "i_from": 0.6690763742584883,
      "s_from": 12168.175868662132,
      "p_to": -10999.367496731802,
      "q_to": -2000.0248586349305,
      "i_to": 16.14162425629882,
      "s_to": 11179.722034259963
    },
    {
      "id": 4,
      "loading": 0.000999996839642966,
      "p_from": 999.9968393335968,
      "q_from": 0.024874419827936443,
      "i_from": 0.05498558427819848,
      "s_from": 999.996839642966,
      "p_to": 0.0,
      "q_to": 0.0,
      "i_to": 0.0,
      "s_to": 0.0
    },
    {
      "id": 5,
      "loading": 0.0009993674970321723,
      "p_from": 7.125554436197003e-08,
      "q_from": 1.6920272860824723e-09,
      "i_from": 3.920398030392681e-12,
      "s_from": 7.127563088922837e-08,
      "p_to": 999.3674967229978,
      "q_to": 0.0248587622734219,
      "i_to": 1.4429173267114204,
      "s_to": 999.3674970321723
    }
  ]
}